output/compact_ny_2025/generation_reconstruction/S2_2025_WINTER_PEAK_PUBLIC/replay_audit_branch.csv
branch_row,device_key,from_bus,to_bus,online,rate_a_mva,from_mva,to_mva,from_overload_mva,to_overload_mva,angle_deg,angle_min_deg,angle_max_deg,angle_below_min_deg,angle_above_max_deg,violated,invalid_limit_bounds,stored_terminal_flow_error_mva,stored_terminal_flow_inconsistent
1,NPCC_S7:BRANCH_ROW:33,37,38,1,2500,122.165430927981,122.094431385183,0,0,-0.937098558963716,-360,360,0,0,0,0,3.5527136788005e-15,0
2,NPCC_S7:BRANCH_ROW:34,37,39,1,3388,972.061487070669,965.825747181535,0,0,3.43517107585511,-360,360,0,0,0,0,1.15667977213006e-13,0
3,NPCC_S7:BRANCH_ROW:35,37,40,1,2500,84.898046227837,89.7249625532491,0,0,0.327793640925849,-360,360,0,0,0,0,2.8421709430404e-14,0
4,NPCC_S7:BRANCH_ROW:36,37,43,0,3745.98196383403,0,0,0,0,-5.30306626200675,-360,360,0,0,0,0,0,0
5,NPCC_S7:BRANCH_ROW:37,38,69,1,1216,415.599091713329,424.168348104019,0,0,-9.73343717596225,-360,360,0,0,0,0,1.4210854715202e-14,0
6,NPCC_S7:BRANCH_ROW:38,39,73,1,2500,663.867847596722,659.255146375875,0,0,5.8440817265839,-360,360,0,0,0,0,7.82791100886255e-13,0
7,NPCC_S7:BRANCH_ROW:39,39,73,1,2500,663.867847596722,659.255146375875,0,0,5.8440817265839,-360,360,0,0,0,0,7.82791100886255e-13,0
8,NPCC_S7:BRANCH_ROW:40,40,44,0,1328.76341358641,0,0,0,0,-3.90597614697686,-360,360,0,0,0,0,0,0
9,NPCC_S7:BRANCH_ROW:41,41,42,1,2500,229.980280850918,231.744432954375,0,0,-1.0820480171901,-360,360,0,0,0,0,7.105427357601e-15,0
10,NPCC_S7:BRANCH_ROW:42,41,45,1,314.254622579561,23.8305569223309,21.6905961892486,0,0,-2.25132849386441,-360,360,0,0,0,0,4.44089209850063e-16,0
11,NPCC_S7:BRANCH_ROW:43,43,44,1,2500,329.752627878658,328.794338506403,0,0,1.72488375595574,-360,360,0,0,0,0,6.85811784934097e-13,0
12,NPCC_S7:BRANCH_ROW:44,43,50,1,3463.47124449306,510.98650827823,514.708064932991,0,0,-6.63309938813095,-360,360,0,0,0,0,2.87396750538799e-13,0
13,NPCC_S7:BRANCH_ROW:45,43,50,1,3463.47124449306,510.98650827823,514.708064932991,0,0,-6.63309938813095,-360,360,0,0,0,0,2.87396750538799e-13,0
14,NPCC_S7:BRANCH_ROW:46,44,45,1,2500,333.823109922118,329.105522093145,0,0,3.20533455843297,-360,360,0,0,0,0,1.13686837721616e-13,0
15,NPCC_S7:BRANCH_ROW:47,44,48,0,6896.14528055676,0,0,0,0,-3.78465561624631,-360,360,0,0,0,0,0,0
16,NPCC_S7:BRANCH_ROW:48,45,46,1,2040.85471944324,36.2086331394758,40.3916220055527,0,0,-6.79708499792791,-360,360,0,0,0,0,1.77635683940025e-15,0
17,NPCC_S7:BRANCH_ROW:49,45,51,1,489.56239109923,104.937468358489,107.734869858227,0,0,-10.4967489151489,-360,360,0,0,0,0,5.6843418860808e-14,0
18,NPCC_S7:BRANCH_ROW:50,45,71,1,166.495119914644,43.7933524736296,47.9185725163693,0,0,-13.2508830087796,-360,360,0,0,0,0,2.48689957516035e-14,0
19,NPCC_S7:BRANCH_ROW:51,46,47,1,2500,60.806674178192,63.55019818547,0,0,-4.03135986648726,-360,360,0,0,0,0,1.00485917355762e-14,0
20,NPCC_S7:BRANCH_ROW:52,46,49,1,2500,11.7361683374447,12.6637056513832,0,0,3.10436057796105,-360,360,0,0,0,0,1.98602732259782e-15,0
21,NPCC_S7:BRANCH_ROW:53,47,48,1,2500,258.995954928547,252.57263050577,0,0,3.83845468973589,-360,360,0,0,0,0,1.4210854715202e-13,0
22,NPCC_S7:BRANCH_ROW:54,50,51,1,2500,122.242381494717,120.94141996572,0,0,1.06656878737073,-360,360,0,0,0,0,4.04198279208228e-13,0
23,NPCC_S7:BRANCH_ROW:55,50,52,1,2858.06690137886,370.990486431926,377.402979700481,0,0,-3.91995984233464,-360,360,0,0,0,0,3.64252787732548e-13,0
24,NPCC_S7:BRANCH_ROW:56,51,53,1,290.964700741948,16.3599693937047,20.3590181525081,0,0,-1.51403157724887,-360,360,0,0,0,0,4.84851059353139e-14,0
25,NPCC_S7:BRANCH_ROW:57,51,72,1,2500,195.254884061768,199.26694854565,0,0,-2.27811400779538,-360,360,0,0,0,0,3.53347694475484e-13,0
26,NPCC_S7:BRANCH_ROW:58,52,53,1,2500,188.117350395488,186.187815208127,0,0,3.4724970524565,-360,360,0,0,0,0,2.10091278659839e-13,0
27,NPCC_S7:BRANCH_ROW:59,53,55,1,997.983883346124,141.953512097255,149.746102573314,0,0,-7.7551480131096,-360,360,0,0,0,0,2.32377078654907e-13,0
28,NPCC_S7:BRANCH_ROW:60,53,65,1,785.968397879188,10.5000490040516,12.0800320215454,0,0,0.357694205760602,-360,360,0,0,0,0,1.77982290482175e-15,0
29,NPCC_S7:BRANCH_ROW:61,54,56,1,789.941803,5.46569896626566,10.469998082744,0,0,-0.0429284627239888,-360,360,0,0,0,0,1.61180500906846e-12,0
30,NPCC_S7:BRANCH_ROW:62,54,62,1,789.941803,63.5472077996484,62.4313299676974,0,0,2.06212664844563,-360,360,0,0,0,0,4.44089209850063e-16,0
31,NPCC_S7:BRANCH_ROW:65,55,57,1,789.941803,29.2250805967296,29.3549401797889,0,0,0.545018844198378,-360,360,0,0,0,0,4.32958511410901e-13,0
32,NPCC_S7:BRANCH_ROW:66,55,59,1,789.941803,15.3851820194224,17.3600569143039,0,0,0.514608228646619,-360,360,0,0,0,0,1.95641332855109e-13,0
33,NPCC_S7:BRANCH_ROW:67,56,58,1,2500,232.303927901412,231.417547177026,0,0,1.65310126848625,-360,360,0,0,0,0,7.79718601402305e-13,0
34,NPCC_S7:BRANCH_ROW:68,57,59,1,2500,5.45830417032788,9.01309804937936,0,0,-0.0304106155517587,-360,360,0,0,0,0,1.94394566994711e-13,0
35,NPCC_S7:BRANCH_ROW:69,58,60,1,2500,44.120716625625,36.2568870225174,0,0,-0.567295976392256,-360,360,0,0,0,0,1.91986293613754e-13,0
36,NPCC_S7:BRANCH_ROW:70,58,62,1,2500,54.4400142788711,53.3222020654527,0,0,0.45195384268337,-360,360,0,0,0,0,7.94410929039127e-15,0
37,NPCC_S7:BRANCH_ROW:71,59,61,1,2500,17.0675809547872,18.6930350387225,0,0,-1.29444099229431,-360,360,0,0,0,0,9.96186236989868e-14,0
38,NPCC_S7:BRANCH_ROW:73,62,63,1,620,113.892080920708,111.759109191513,0,0,4.37550487878464,-360,360,0,0,0,0,1.89398711566671e-13,0
39,NPCC_S7:BRANCH_ROW:74,63,64,1,2500,99.6396109586795,99.2099582306389,0,0,2.1962090853415,-360,360,0,0,0,0,2.99404405154124e-13,0
40,NPCC_S7:BRANCH_ROW:75,63,67,1,2500,21.7503197680602,13.4281081444995,0,0,0.613526733307848,-360,360,0,0,0,0,1.98388125358568e-13,0
41,NPCC_S7:BRANCH_ROW:76,64,65,1,2500,36.0679450589824,35.5179489717312,0,0,1.41980323451173,-360,360,0,0,0,0,7.22924857581284e-15,0
42,NPCC_S7:BRANCH_ROW:77,64,68,1,2500,17.3869354047978,23.43860608092,0,0,-2.35627139626537,-360,360,0,0,0,0,3.5527136788005e-15,0
43,NPCC_S7:BRANCH_ROW:78,66,67,1,2500,93.1801646935987,92.8165674084096,0,0,-0.996366437197345,-360,360,0,0,0,0,2.05965492350455e-13,0
44,NPCC_S7:BRANCH_ROW:79,66,69,1,2500,259.225571812633,257.388367198125,0,0,3.3615176486773,-360,360,0,0,0,0,4.71441223145143e-13,0
45,NPCC_S7:BRANCH_ROW:81,67,68,1,2500,40.3385313374258,39.9547972001826,0,0,-0.773589044231722,-360,360,0,0,0,0,7.105427357601e-15,0
46,NPCC_S7:BRANCH_ROW:82,67,70,1,2500,26.7433924682179,30.0623148906057,0,0,0.770323527917773,-360,360,0,0,0,0,9.6029879515258e-14,0
47,NPCC_S7:BRANCH_ROW:84,68,71,1,2500,21.0727544432628,17.1674144520916,0,0,2.17827790863473,-360,360,0,0,0,0,1.35108257877948e-13,0
48,NPCC_S7:BRANCH_ROW:85,69,71,1,2500,170.532185502485,168.215219974056,0,0,-2.95319522147164,-360,360,0,0,0,0,8.05017011672848e-13,0
49,NPCC_S7:BRANCH_ROW:86,70,71,1,2500,30.0623148906059,29.8928581476762,0,0,0.634365336485232,-360,360,0,0,0,0,7.77817148383436e-13,0
50,NPCC_S7:BRANCH_ROW:87,71,72,1,2500,69.5467945193921,66.86011355097,0,0,0.476020085835261,-360,360,0,0,0,0,2.18611726365402e-12,0
51,NPCC_S7:BRANCH_ROW:88,73,74,0,1599.84337349398,0,0,0,0,4.19232558944603,-360,360,0,0,0,0,0,0
52,NPCC_S7:BRANCH_ROW:89,73,74,0,1599.84337349398,0,0,0,0,4.19232558944603,-360,360,0,0,0,0,0,0
53,NPCC_S7:BRANCH_ROW:90,74,77,1,2500,73.531882522661,72.9232046778428,0,0,-0.150105040932408,-360,360,0,0,0,0,3.47076671170607e-12,0
54,NPCC_S7:BRANCH_ROW:91,74,78,1,2889.50495049505,585.227158520797,582.644718112759,0,0,1.27109765689242,-360,360,0,0,0,0,9.25343817704044e-13,0
55,NPCC_S7:BRANCH_ROW:92,74,78,1,2889.50495049505,585.227158520797,582.644718112759,0,0,1.27109765689242,-360,360,0,0,0,0,9.25343817704044e-13,0
56,NPCC_S7:BRANCH_ROW:94,76,77,0,4611.31325301205,0,0,0,0,0.43804825235706,-360,360,0,0,0,0,0,0
57,NPCC_S7:BRANCH_ROW:95,78,79,0,908.848753535103,0,0,0,0,1.88121207974302,-360,360,0,0,0,0,0,0
58,NPCC_S7:BRANCH_ROW:96,78,80,1,984.654731457801,45.1090294435028,38.4477379295325,0,0,0.858787585774312,-360,360,0,0,0,0,4.02084952913703e-13,0
59,NPCC_S7:BRANCH_ROW:97,78,81,0,503.818330764024,0,0,0,0,-0.690434210886526,-360,360,0,0,0,0,0,0
60,NPCC_S7:BRANCH_ROW:98,78,82,1,451.473569126203,172.423149777978,172.216157911614,0,0,2.56382374431354,-360,360,0,0,0,0,1.81510294048713e-13,0
61,NPCC_S7:BRANCH_ROW:219,40,41,1,2500,235.663414780569,231.156895532312,0,0,1.55068690532051,-360,360,0,0,0,0,4.01943669423046e-14,0
62,NPCC_S7:BRANCH_ROW:220,49,48,1,2500,42.7242977897852,42.9601918148574,0,0,-3.29726575471242,-360,360,0,0,0,0,4.97979272597648e-14,0
63,NPCC_S7:BRANCH_ROW:222,54,52,1,4583.01611665388,560.754655757388,557.19444614952,0,0,6.22345258886639,-360,360,0,0,0,0,7.42425785610687e-13,0
64,NPCC_S7:BRANCH_ROW:223,54,55,1,2500,315.204779343704,315.248527683367,0,0,1.9408016282133,-360,360,0,0,0,0,7.81405220010186e-13,0
65,NPCC_S7:BRANCH_ROW:224,56,57,1,2500,37.621826730014,37.5233905820805,0,0,2.52874893513566,-360,360,0,0,0,0,6.01080938469374e-14,0
66,NPCC_S7:BRANCH_ROW:225,58,59,1,2500,193.831669605034,193.269220272685,0,0,0.845237051097651,-360,360,0,0,0,0,7.8921437342052e-13,0
67,NPCC_S7:BRANCH_ROW:226,60,61,1,2500,4.910560441862,4.90278880625625,0,0,0.118092035195595,-360,360,0,0,0,0,1.95278099535979e-13,0
68,NPCC_S7:BRANCH_ROW:227,75,76,1,2500,119.73220761928,119.723485684303,0,0,0.426164762897615,-360,360,0,0,0,0,3.91006931308797e-13,0
69,NPCC_S7:BRANCH_ROW:234,38,39,1,1216,461.003853194521,458.650565083582,0,0,4.37226963481883,-360,360,0,0,0,0,5.75331240096291e-14,0
70,NPCC_S7:BRANCH_ROW:235,73,9002,0,2432,0,0,0,0,2.20014449531336,-360,360,0,0,0,0,0,0
71,NPCC_S7:BRANCH_ROW:236,9002,74,0,2432,0,0,0,0,1.99218109413267,-360,360,0,0,0,0,0,0
72,NPCC_S7:BRANCH_ROW:237,74,78,1,866.851485148515,176.039190803981,175.785519925247,0,0,1.27109765689242,-360,360,0,0,0,0,2.31669895643816e-13,0
73,NPCC_S7:BRANCH_ROW:238,77,78,1,650.138613861386,147.777122933161,147.511091662289,0,0,1.42120269782483,-360,360,0,0,0,0,2.04547798585901e-13,0
74,NPCC_S7:BRANCH_ROW:239,78,81,0,1158.78216075726,0,0,0,0,-0.690434210886526,-360,360,0,0,0,0,0,0
75,NPCC_S7:BRANCH_ROW:240,78,79,0,1390.53859290871,0,0,0,0,1.88121207974302,-360,360,0,0,0,0,0,0
76,NPCC_S7:BRANCH_ROW:241,78,82,1,1390.53859290871,530.179807329664,529.543333004906,0,0,2.56382374431354,-360,360,0,0,0,0,8.3590755195091e-13,0
77,NPCC_S7:BRANCH_ROW:242,78,9003,1,2865.3452685422,43.5193903461735,43.5287136582689,0,0,-0.420539447766878,-360,360,0,0,0,0,3.93738870005084e-13,0
78,NPCC_S7:BRANCH_ROW:243,9003,80,1,5000,132.50943106728,132.338746462722,0,0,1.27932703354119,-360,360,0,0,0,0,8.79761236418679e-13,0
79,NPCC_S7:BRANCH_ROW:244,81,80,1,2950,106.503503047669,106.618574815447,0,0,1.54922179666084,-360,360,0,0,0,0,7.7550132855562e-13,0
80,NPCC_S7:BRANCH_ROW:245,39,9001,1,5000,216.70466707804,216.839442138941,0,0,3.63251297579923,-360,360,0,0,0,0,1.14571573537582e-13,0
81,NPCC_S7:BRANCH_ROW:246,9001,73,0,5000,0,0,0,0,2.21156875078467,-360,360,0,0,0,0,0,0
82,PERFORM2019:AC:651:858:1,73,858,1,1216,369.827353044141,368.427773204024,0,0,0.937189383974657,-360,360,0,0,0,0,3.16050375317751e-12,0
83,PERFORM2019:AC:651:858:2,73,858,1,1216,369.827419646188,368.427722755941,0,0,0.937189383974657,-360,360,0,0,0,0,3.16388651528445e-12,0
84,PERFORM2019:AC:651:902:1,73,9002,1,1216,370.541446751879,367.726096196057,0,0,2.20014449531336,-360,360,0,0,0,0,1.59391381672413e-12,0
85,PERFORM2019:AC:651:902:2,73,9002,1,1216,370.541512866113,367.72606831003,0,0,2.20014449531336,-360,360,0,0,0,0,1.59391381672413e-12,0
86,PERFORM2019:AC:858:902:1,858,9002,1,1216,368.427798428426,366.98076425639,0,0,1.26295511133871,-360,360,0,0,0,0,3.17834470648192e-12,0
87,PERFORM2019:AC:858:902:2,858,9002,1,1216,368.42769753226,366.980820486408,0,0,1.26295511133871,-360,360,0,0,0,0,3.16050375317751e-12,0
88,PERFORM2019:AC:897:902:1,9002,74,1,1216,734.707183071128,733.462369264419,0,0,1.99218109413267,-360,360,0,0,0,0,8.18605674839787e-13,0
89,PERFORM2019:AC:897:902:2,9002,74,1,1216,734.706539061867,733.463165678062,0,0,1.99218109413267,-360,360,0,0,0,0,8.22052191681603e-13,0
90,PERFORM2019:AC:774:1519:1,76,774,1,1216,113.112613085864,111.758251017859,0,0,0.148726356278171,-360,360,0,0,0,0,1.56845368299916e-12,0
91,PERFORM2019:AC:774:900:1,774,77,1,1725,111.758251017854,110.829609225515,0,0,0.289321896078889,-360,360,0,0,0,0,7.838626178311e-13,0
92,PERFORM2019:AC:900:1519:1,76,77,1,1725,112.177702610504,109.85883408168,0,0,0.43804825235706,-360,360,0,0,0,0,7.838626178311e-13,0
93,NY2025:CEEC:351,43,9101,1,2000,279.530218973084,270.1481501427,0,0,3.46015600016246,-360,360,0,0,0,0,7.94127652417536e-13,0
94,NY2025:CEEC:352,43,9101,1,2000,279.530218973084,270.1481501427,0,0,3.46015600016246,-360,360,0,0,0,0,7.94127652417536e-13,0
95,NY2025:CEEC:361,9101,37,1,2000,375.907171630353,374.899395625945,0,0,1.84291026184429,-360,360,0,0,0,0,1.56067683218191e-12,0
96,NY2025:CEEC:362,9101,37,1,2000,375.907171630353,374.899395625945,0,0,1.84291026184429,-360,360,0,0,0,0,1.56067683218191e-12,0
97,NY2025:CEEC:14,43,9102,1,2000,247.163425581281,236.937417344245,0,0,3.25954595879006,-360,360,0,0,0,0,1.14571573537582e-13,0
98,NY2025:CEEC:371,9101,9102,1,2000,212.613234580892,213.406111754023,0,0,-0.200610041372398,-360,360,0,0,0,0,1.27233787883845e-11,0
99,NY2025:CEEC:LEGACY230:1,40,9103,1,1328.76341358641,174.425323221071,171.105531050965,0,0,-2.07492672373281,-360,360,0,0,0,0,1.13686837721616e-13,0
100,NY2025:CEEC:LEGACY230:2,9103,44,1,1328.76341358641,141.494364197629,143.8705925036,0,0,-1.83104942324405,-360,360,0,0,0,0,8.5321777106468e-14,0
101,NY2025:CEEC:GORDON_XFMR,9102,9103,1,1200,47.2454431485088,46.8532810907998,0,0,0.296387220409732,-360,360,0,0,0,0,9.26434382393303e-14,0
102,NY2025:NYES:1,9001,9104,1,1800,216.839442138941,215.509331916747,0,0,0.904361477928346,-360,360,0,0,0,0,2.28729655345033e-13,0
103,NY2025:NYES:2,9104,73,1,1800,215.509331916747,218.186804983399,0,0,1.30720727285632,-360,360,0,0,0,0,1.54355509324852e-12,0
104,NY2025:SMART_PATH:1,1220,48,1,575,43.7281325443649,69.5238407545982,0,0,-2.46991133920903,-360,360,0,0,0,0,4.98647127060472e-14,0
105,NY2025:SMART_PATH:2,1220,48,1,575,43.7120483824172,69.5162286689358,0,0,-2.46991133920903,-360,360,0,0,0,0,3.5527136788005e-14,0
106,NY2025:SMART_PATH:3,1220,44,1,453,43.7200900270305,47.8368694500635,0,0,1.31474427703728,-360,360,0,0,0,0,4.98647127060472e-14,0
107,NY2025:SMART_PATH:4,1220,44,1,453,43.7200900270305,47.8368694500635,0,0,1.31474427703728,-360,360,0,0,0,0,4.98647127060472e-14,0
108,NY2025:NYC:DELIVERY:95:1,78,1130,1,908.848753535103,240.181630324002,240.0391911778,0,0,0.886426720243154,-360,360,0,0,0,0,7.54951656745106e-15,0
109,NY2025:NYC:DELIVERY:95:2,1130,79,1,908.848753535103,269.191561188142,269.024866826639,0,0,0.994785359499861,-360,360,0,0,0,0,7.67755240717404e-13,0
110,NY2025:NYC:DELIVERY:240:1,78,557,1,1390.53859290871,368.474494174183,368.266651611456,0,0,0.890312707074303,-360,360,0,0,0,0,7.74206334544384e-13,0
111,NY2025:NYC:DELIVERY:240:2,557,79,1,1390.53859290871,409.641502031914,409.375962408888,0,0,0.990899372668713,-360,360,0,0,0,0,8.23861969401818e-13,0
112,NY2025:NYC:DELIVERY:97:1,78,1129,1,503.818330764024,47.5710054788861,47.5262856239474,0,0,-0.312373076340716,-360,360,0,0,0,0,1.77635683940025e-15,0
113,NY2025:NYC:DELIVERY:97:2,1129,81,1,503.818330764024,57.5726178100066,57.5027628328865,0,0,-0.37806113454581,-360,360,0,0,0,0,7.32410687763558e-15,0
114,NY2025:NYC:DELIVERY:239:1,78,1129,1,1158.78216075726,109.234819129632,109.132131258805,0,0,-0.312373076340716,-360,360,0,0,0,0,1.4210854715202e-14,0
115,NY2025:NYC:DELIVERY:239:2,1129,81,1,1158.78216075726,132.200999957567,132.040595616431,0,0,-0.37806113454581,-360,360,0,0,0,0,3.5527136788005e-15,0
116,NY2025:NYC:RAINEY_XFMR,1130,1529,1,1500,29.3612403574304,29.3989915714349,0,0,-0.454887015566719,-360,360,0,0,0,0,1.90865388698701e-13,0
117,NY2025:NYC:ASTORIA_XFMR,557,1493,1,1500,41.935639818168,41.9982646624077,0,0,-0.498971631500234,-360,360,0,0,0,0,1.90426778818525e-13,0
118,NY2025:NYC:CORONA_BASELINE,1493,601,1,2248,41.9982646623846,42.3229649414844,0,0,-0.0201413862741724,-360,360,0,0,0,0,2.49960249429481e-11,0
119,NY2025:RCC_QUEENS:CABLE,1529,601,1,300,29.3989915714323,29.0973421002896,0,0,-0.0603400153765392,-360,360,0,0,0,0,6.25094916985373e-12,0
120,NY2025:RCC_BROOKLYN:PAR,1129,9112,1,300,33.2409286379342,33.3105396392214,0,0,0.467568119598079,-360,360,0,0,0,0,1.93875332138905e-13,0
121,NY2025:RCC_BROOKLYN:CABLE,9112,9111,1,300,33.3105396392269,33.1094265831325,0,0,0.0118070772600252,-360,360,0,0,0,0,1.24005878054186e-11,0
122,NY2025:RCC_STATEN:PAR,81,9113,1,300,41.8877601623419,42.0207769779131,0,0,0.581691320377152,-360,360,0,0,0,0,7.32410687763558e-15,0
123,NY2025:RCC_STATEN:CABLE,9113,9114,1,300,42.0207769779126,40.2095526408084,0,0,0.134256015918231,-360,360,0,0,0,0,7.76355329029372e-13,0
124,NY2025:NYC:GREENWOOD_CORONA,9111,601,1,600,71.8269187796794,71.0549053572202,0,0,0.204197568782508,-360,360,0,0,0,0,3.1947272797141e-12,0
125,NY2025:NYC:FOX_GREENWOOD,9114,9111,1,600,40.2095526408065,39.1830855022566,0,0,0.141488995108531,-360,360,0,0,0,0,7.8240402762991e-13,0
